*SPEF "ieee 1481-1999"
*DESIGN "tt_um_htfab_cell_tester"
*DATE "11:11:11 Fri 11 11, 1111"
*VENDOR "OpenRCX"
*PROGRAM "Parallel Extraction"
*VERSION "1.0"
*DESIGN_FLOW "NAME_SCOPE LOCAL" "PIN_CAP NONE"
*DIVIDER /
*DELIMITER :
*BUS_DELIMITER []
*T_UNIT 1 NS
*C_UNIT 1 PF
*R_UNIT 1 OHM
*L_UNIT 1 HENRY

*NAME_MAP
*3 clk
*4 ena
*5 rst_n
*6 ui_in[0]
*7 ui_in[1]
*8 ui_in[2]
*9 ui_in[3]
*10 ui_in[4]
*11 ui_in[5]
*12 ui_in[6]
*13 ui_in[7]
*14 uio_in[0]
*15 uio_in[1]
*16 uio_in[2]
*17 uio_in[3]
*18 uio_in[4]
*19 uio_in[5]
*20 uio_in[6]
*21 uio_in[7]
*22 net54
*23 net55
*24 net56
*25 net57
*26 net58
*27 net59
*28 net60
*29 net61
*30 uio_out[0]
*31 uio_out[1]
*32 uio_out[2]
*33 uio_out[3]
*34 uio_out[4]
*35 uio_out[5]
*36 uio_out[6]
*37 uio_out[7]
*38 uo_out[0]
*39 uo_out[1]
*40 uo_out[2]
*41 uo_out[3]
*42 uo_out[4]
*43 uo_out[5]
*44 uo_out[6]
*45 uo_out[7]
*46 _00_
*47 _01_
*48 _02_
*49 _03_
*50 _04_
*51 ct\.cw\.source\[0\]
*52 ct\.cw\.source\[1\]
*53 ct\.cw\.source\[2\]
*54 ct\.cw\.target\[0\]
*55 ct\.cw\.target\[1\]
*56 ct\.cw\.target\[2\]
*57 ct\.cw\.target\[3\]
*58 ct\.cw\.target\[4\]
*59 ct\.cw\.target\[5\]
*60 ct\.cw\.target\[6\]
*61 ct\.cw\.target\[7\]
*62 ct\.ic\.data_chain\[10\]
*63 ct\.ic\.data_chain\[11\]
*64 ct\.ic\.data_chain\[12\]
*65 ct\.ic\.data_chain\[13\]
*66 ct\.ic\.data_chain\[14\]
*67 ct\.ic\.data_chain\[15\]
*68 ct\.ic\.data_chain\[16\]
*69 ct\.ic\.data_chain\[17\]
*70 ct\.ic\.data_chain\[18\]
*71 ct\.ic\.data_chain\[19\]
*72 ct\.ic\.data_chain\[20\]
*73 ct\.ic\.data_chain\[21\]
*74 ct\.ic\.data_chain\[22\]
*75 ct\.ic\.data_chain\[23\]
*76 ct\.ic\.data_chain\[24\]
*77 ct\.ic\.data_chain\[25\]
*78 ct\.ic\.data_chain\[26\]
*79 ct\.ic\.data_chain\[27\]
*80 ct\.ic\.data_chain\[28\]
*81 ct\.ic\.data_chain\[29\]
*82 ct\.ic\.data_chain\[30\]
*83 ct\.ic\.data_chain\[31\]
*84 ct\.ic\.data_chain\[32\]
*85 ct\.ic\.data_chain\[33\]
*86 ct\.ic\.data_chain\[34\]
*87 ct\.ic\.data_chain\[35\]
*88 ct\.ic\.data_chain\[3\]
*89 ct\.ic\.data_chain\[4\]
*90 ct\.ic\.data_chain\[5\]
*91 ct\.ic\.data_chain\[6\]
*92 ct\.ic\.data_chain\[7\]
*93 ct\.ic\.data_chain\[8\]
*94 ct\.ic\.data_chain\[9\]
*95 ct\.ic\.trig_chain\[0\]
*96 ct\.ic\.trig_chain\[10\]
*97 ct\.ic\.trig_chain\[11\]
*98 ct\.ic\.trig_chain\[12\]
*99 ct\.ic\.trig_chain\[1\]
*100 ct\.ic\.trig_chain\[2\]
*101 ct\.ic\.trig_chain\[3\]
*102 ct\.ic\.trig_chain\[4\]
*103 ct\.ic\.trig_chain\[5\]
*104 ct\.ic\.trig_chain\[6\]
*105 ct\.ic\.trig_chain\[7\]
*106 ct\.ic\.trig_chain\[8\]
*107 ct\.ic\.trig_chain\[9\]
*108 ct\.oc\.capture_buffer\[0\]
*109 ct\.oc\.capture_buffer\[100\]
*110 ct\.oc\.capture_buffer\[101\]
*111 ct\.oc\.capture_buffer\[102\]
*112 ct\.oc\.capture_buffer\[103\]
*113 ct\.oc\.capture_buffer\[104\]
*114 ct\.oc\.capture_buffer\[105\]
*115 ct\.oc\.capture_buffer\[106\]
*116 ct\.oc\.capture_buffer\[107\]
*117 ct\.oc\.capture_buffer\[108\]
*118 ct\.oc\.capture_buffer\[109\]
*119 ct\.oc\.capture_buffer\[10\]
*120 ct\.oc\.capture_buffer\[110\]
*121 ct\.oc\.capture_buffer\[111\]
*122 ct\.oc\.capture_buffer\[112\]
*123 ct\.oc\.capture_buffer\[113\]
*124 ct\.oc\.capture_buffer\[114\]
*125 ct\.oc\.capture_buffer\[115\]
*126 ct\.oc\.capture_buffer\[116\]
*127 ct\.oc\.capture_buffer\[117\]
*128 ct\.oc\.capture_buffer\[118\]
*129 ct\.oc\.capture_buffer\[119\]
*130 ct\.oc\.capture_buffer\[11\]
*131 ct\.oc\.capture_buffer\[120\]
*132 ct\.oc\.capture_buffer\[121\]
*133 ct\.oc\.capture_buffer\[122\]
*134 ct\.oc\.capture_buffer\[123\]
*135 ct\.oc\.capture_buffer\[124\]
*136 ct\.oc\.capture_buffer\[125\]
*137 ct\.oc\.capture_buffer\[126\]
*138 ct\.oc\.capture_buffer\[127\]
*139 ct\.oc\.capture_buffer\[128\]
*140 ct\.oc\.capture_buffer\[129\]
*141 ct\.oc\.capture_buffer\[12\]
*142 ct\.oc\.capture_buffer\[130\]
*143 ct\.oc\.capture_buffer\[131\]
*144 ct\.oc\.capture_buffer\[132\]
*145 ct\.oc\.capture_buffer\[133\]
*146 ct\.oc\.capture_buffer\[134\]
*147 ct\.oc\.capture_buffer\[135\]
*148 ct\.oc\.capture_buffer\[136\]
*149 ct\.oc\.capture_buffer\[137\]
*150 ct\.oc\.capture_buffer\[138\]
*151 ct\.oc\.capture_buffer\[139\]
*152 ct\.oc\.capture_buffer\[13\]
*153 ct\.oc\.capture_buffer\[140\]
*154 ct\.oc\.capture_buffer\[141\]
*155 ct\.oc\.capture_buffer\[142\]
*156 ct\.oc\.capture_buffer\[143\]
*157 ct\.oc\.capture_buffer\[144\]
*158 ct\.oc\.capture_buffer\[145\]
*159 ct\.oc\.capture_buffer\[146\]
*160 ct\.oc\.capture_buffer\[147\]
*161 ct\.oc\.capture_buffer\[148\]
*162 ct\.oc\.capture_buffer\[149\]
*163 ct\.oc\.capture_buffer\[14\]
*164 ct\.oc\.capture_buffer\[150\]
*165 ct\.oc\.capture_buffer\[151\]
*166 ct\.oc\.capture_buffer\[152\]
*167 ct\.oc\.capture_buffer\[153\]
*168 ct\.oc\.capture_buffer\[154\]
*169 ct\.oc\.capture_buffer\[155\]
*170 ct\.oc\.capture_buffer\[156\]
*171 ct\.oc\.capture_buffer\[157\]
*172 ct\.oc\.capture_buffer\[158\]
*173 ct\.oc\.capture_buffer\[159\]
*174 ct\.oc\.capture_buffer\[15\]
*175 ct\.oc\.capture_buffer\[160\]
*176 ct\.oc\.capture_buffer\[161\]
*177 ct\.oc\.capture_buffer\[162\]
*178 ct\.oc\.capture_buffer\[163\]
*179 ct\.oc\.capture_buffer\[164\]
*180 ct\.oc\.capture_buffer\[165\]
*181 ct\.oc\.capture_buffer\[166\]
*182 ct\.oc\.capture_buffer\[167\]
*183 ct\.oc\.capture_buffer\[168\]
*184 ct\.oc\.capture_buffer\[169\]
*185 ct\.oc\.capture_buffer\[16\]
*186 ct\.oc\.capture_buffer\[170\]
*187 ct\.oc\.capture_buffer\[171\]
*188 ct\.oc\.capture_buffer\[172\]
*189 ct\.oc\.capture_buffer\[173\]
*190 ct\.oc\.capture_buffer\[174\]
*191 ct\.oc\.capture_buffer\[175\]
*192 ct\.oc\.capture_buffer\[176\]
*193 ct\.oc\.capture_buffer\[177\]
*194 ct\.oc\.capture_buffer\[178\]
*195 ct\.oc\.capture_buffer\[179\]
*196 ct\.oc\.capture_buffer\[17\]
*197 ct\.oc\.capture_buffer\[180\]
*198 ct\.oc\.capture_buffer\[181\]
*199 ct\.oc\.capture_buffer\[182\]
*200 ct\.oc\.capture_buffer\[183\]
*201 ct\.oc\.capture_buffer\[184\]
*202 ct\.oc\.capture_buffer\[185\]
*203 ct\.oc\.capture_buffer\[186\]
*204 ct\.oc\.capture_buffer\[187\]
*205 ct\.oc\.capture_buffer\[188\]
*206 ct\.oc\.capture_buffer\[189\]
*207 ct\.oc\.capture_buffer\[18\]
*208 ct\.oc\.capture_buffer\[190\]
*209 ct\.oc\.capture_buffer\[191\]
*210 ct\.oc\.capture_buffer\[192\]
*211 ct\.oc\.capture_buffer\[193\]
*212 ct\.oc\.capture_buffer\[194\]
*213 ct\.oc\.capture_buffer\[195\]
*214 ct\.oc\.capture_buffer\[196\]
*215 ct\.oc\.capture_buffer\[197\]
*216 ct\.oc\.capture_buffer\[198\]
*217 ct\.oc\.capture_buffer\[199\]
*218 ct\.oc\.capture_buffer\[19\]
*219 ct\.oc\.capture_buffer\[1\]
*220 ct\.oc\.capture_buffer\[200\]
*221 ct\.oc\.capture_buffer\[201\]
*222 ct\.oc\.capture_buffer\[202\]
*223 ct\.oc\.capture_buffer\[203\]
*224 ct\.oc\.capture_buffer\[204\]
*225 ct\.oc\.capture_buffer\[205\]
*226 ct\.oc\.capture_buffer\[206\]
*227 ct\.oc\.capture_buffer\[207\]
*228 ct\.oc\.capture_buffer\[208\]
*229 ct\.oc\.capture_buffer\[209\]
*230 ct\.oc\.capture_buffer\[20\]
*231 ct\.oc\.capture_buffer\[210\]
*232 ct\.oc\.capture_buffer\[211\]
*233 ct\.oc\.capture_buffer\[212\]
*234 ct\.oc\.capture_buffer\[213\]
*235 ct\.oc\.capture_buffer\[214\]
*236 ct\.oc\.capture_buffer\[215\]
*237 ct\.oc\.capture_buffer\[216\]
*238 ct\.oc\.capture_buffer\[217\]
*239 ct\.oc\.capture_buffer\[218\]
*240 ct\.oc\.capture_buffer\[219\]
*241 ct\.oc\.capture_buffer\[21\]
*242 ct\.oc\.capture_buffer\[220\]
*243 ct\.oc\.capture_buffer\[221\]
*244 ct\.oc\.capture_buffer\[222\]
*245 ct\.oc\.capture_buffer\[223\]
*246 ct\.oc\.capture_buffer\[224\]
*247 ct\.oc\.capture_buffer\[225\]
*248 ct\.oc\.capture_buffer\[226\]
*249 ct\.oc\.capture_buffer\[227\]
*250 ct\.oc\.capture_buffer\[228\]
*251 ct\.oc\.capture_buffer\[229\]
*252 ct\.oc\.capture_buffer\[22\]
*253 ct\.oc\.capture_buffer\[230\]
*254 ct\.oc\.capture_buffer\[231\]
*255 ct\.oc\.capture_buffer\[232\]
*256 ct\.oc\.capture_buffer\[233\]
*257 ct\.oc\.capture_buffer\[234\]
*258 ct\.oc\.capture_buffer\[235\]
*259 ct\.oc\.capture_buffer\[236\]
*260 ct\.oc\.capture_buffer\[237\]
*261 ct\.oc\.capture_buffer\[238\]
*262 ct\.oc\.capture_buffer\[239\]
*263 ct\.oc\.capture_buffer\[23\]
*264 ct\.oc\.capture_buffer\[240\]
*265 ct\.oc\.capture_buffer\[241\]
*266 ct\.oc\.capture_buffer\[242\]
*267 ct\.oc\.capture_buffer\[243\]
*268 ct\.oc\.capture_buffer\[244\]
*269 ct\.oc\.capture_buffer\[245\]
*270 ct\.oc\.capture_buffer\[246\]
*271 ct\.oc\.capture_buffer\[247\]
*272 ct\.oc\.capture_buffer\[248\]
*273 ct\.oc\.capture_buffer\[249\]
*274 ct\.oc\.capture_buffer\[24\]
*275 ct\.oc\.capture_buffer\[250\]
*276 ct\.oc\.capture_buffer\[251\]
*277 ct\.oc\.capture_buffer\[252\]
*278 ct\.oc\.capture_buffer\[253\]
*279 ct\.oc\.capture_buffer\[254\]
*280 ct\.oc\.capture_buffer\[255\]
*281 ct\.oc\.capture_buffer\[256\]
*282 ct\.oc\.capture_buffer\[257\]
*283 ct\.oc\.capture_buffer\[258\]
*284 ct\.oc\.capture_buffer\[259\]
*285 ct\.oc\.capture_buffer\[25\]
*286 ct\.oc\.capture_buffer\[260\]
*287 ct\.oc\.capture_buffer\[261\]
*288 ct\.oc\.capture_buffer\[262\]
*289 ct\.oc\.capture_buffer\[263\]
*290 ct\.oc\.capture_buffer\[264\]
*291 ct\.oc\.capture_buffer\[265\]
*292 ct\.oc\.capture_buffer\[266\]
*293 ct\.oc\.capture_buffer\[267\]
*294 ct\.oc\.capture_buffer\[268\]
*295 ct\.oc\.capture_buffer\[269\]
*296 ct\.oc\.capture_buffer\[26\]
*297 ct\.oc\.capture_buffer\[270\]
*298 ct\.oc\.capture_buffer\[271\]
*299 ct\.oc\.capture_buffer\[272\]
*300 ct\.oc\.capture_buffer\[273\]
*301 ct\.oc\.capture_buffer\[274\]
*302 ct\.oc\.capture_buffer\[275\]
*303 ct\.oc\.capture_buffer\[276\]
*304 ct\.oc\.capture_buffer\[277\]
*305 ct\.oc\.capture_buffer\[278\]
*306 ct\.oc\.capture_buffer\[279\]
*307 ct\.oc\.capture_buffer\[27\]
*308 ct\.oc\.capture_buffer\[280\]
*309 ct\.oc\.capture_buffer\[281\]
*310 ct\.oc\.capture_buffer\[282\]
*311 ct\.oc\.capture_buffer\[283\]
*312 ct\.oc\.capture_buffer\[284\]
*313 ct\.oc\.capture_buffer\[285\]
*314 ct\.oc\.capture_buffer\[286\]
*315 ct\.oc\.capture_buffer\[287\]
*316 ct\.oc\.capture_buffer\[288\]
*317 ct\.oc\.capture_buffer\[289\]
*318 ct\.oc\.capture_buffer\[28\]
*319 ct\.oc\.capture_buffer\[290\]
*320 ct\.oc\.capture_buffer\[291\]
*321 ct\.oc\.capture_buffer\[292\]
*322 ct\.oc\.capture_buffer\[293\]
*323 ct\.oc\.capture_buffer\[294\]
*324 ct\.oc\.capture_buffer\[295\]
*325 ct\.oc\.capture_buffer\[296\]
*326 ct\.oc\.capture_buffer\[297\]
*327 ct\.oc\.capture_buffer\[298\]
*328 ct\.oc\.capture_buffer\[299\]
*329 ct\.oc\.capture_buffer\[29\]
*330 ct\.oc\.capture_buffer\[2\]
*331 ct\.oc\.capture_buffer\[300\]
*332 ct\.oc\.capture_buffer\[301\]
*333 ct\.oc\.capture_buffer\[302\]
*334 ct\.oc\.capture_buffer\[303\]
*335 ct\.oc\.capture_buffer\[304\]
*336 ct\.oc\.capture_buffer\[305\]
*337 ct\.oc\.capture_buffer\[306\]
*338 ct\.oc\.capture_buffer\[307\]
*339 ct\.oc\.capture_buffer\[308\]
*340 ct\.oc\.capture_buffer\[309\]
*341 ct\.oc\.capture_buffer\[30\]
*342 ct\.oc\.capture_buffer\[310\]
*343 ct\.oc\.capture_buffer\[311\]
*344 ct\.oc\.capture_buffer\[312\]
*345 ct\.oc\.capture_buffer\[313\]
*346 ct\.oc\.capture_buffer\[314\]
*347 ct\.oc\.capture_buffer\[315\]
*348 ct\.oc\.capture_buffer\[316\]
*349 ct\.oc\.capture_buffer\[317\]
*350 ct\.oc\.capture_buffer\[318\]
*351 ct\.oc\.capture_buffer\[319\]
*352 ct\.oc\.capture_buffer\[31\]
*353 ct\.oc\.capture_buffer\[320\]
*354 ct\.oc\.capture_buffer\[321\]
*355 ct\.oc\.capture_buffer\[322\]
*356 ct\.oc\.capture_buffer\[323\]
*357 ct\.oc\.capture_buffer\[324\]
*358 ct\.oc\.capture_buffer\[325\]
*359 ct\.oc\.capture_buffer\[326\]
*360 ct\.oc\.capture_buffer\[327\]
*361 ct\.oc\.capture_buffer\[328\]
*362 ct\.oc\.capture_buffer\[329\]
*363 ct\.oc\.capture_buffer\[32\]
*364 ct\.oc\.capture_buffer\[330\]
*365 ct\.oc\.capture_buffer\[331\]
*366 ct\.oc\.capture_buffer\[332\]
*367 ct\.oc\.capture_buffer\[333\]
*368 ct\.oc\.capture_buffer\[334\]
*369 ct\.oc\.capture_buffer\[335\]
*370 ct\.oc\.capture_buffer\[336\]
*371 ct\.oc\.capture_buffer\[337\]
*372 ct\.oc\.capture_buffer\[338\]
*373 ct\.oc\.capture_buffer\[339\]
*374 ct\.oc\.capture_buffer\[33\]
*375 ct\.oc\.capture_buffer\[340\]
*376 ct\.oc\.capture_buffer\[341\]
*377 ct\.oc\.capture_buffer\[342\]
*378 ct\.oc\.capture_buffer\[343\]
*379 ct\.oc\.capture_buffer\[344\]
*380 ct\.oc\.capture_buffer\[345\]
*381 ct\.oc\.capture_buffer\[346\]
*382 ct\.oc\.capture_buffer\[347\]
*383 ct\.oc\.capture_buffer\[348\]
*384 ct\.oc\.capture_buffer\[349\]
*385 ct\.oc\.capture_buffer\[34\]
*386 ct\.oc\.capture_buffer\[350\]
*387 ct\.oc\.capture_buffer\[351\]
*388 ct\.oc\.capture_buffer\[35\]
*389 ct\.oc\.capture_buffer\[36\]
*390 ct\.oc\.capture_buffer\[37\]
*391 ct\.oc\.capture_buffer\[38\]
*392 ct\.oc\.capture_buffer\[39\]
*393 ct\.oc\.capture_buffer\[3\]
*394 ct\.oc\.capture_buffer\[40\]
*395 ct\.oc\.capture_buffer\[41\]
*396 ct\.oc\.capture_buffer\[42\]
*397 ct\.oc\.capture_buffer\[43\]
*398 ct\.oc\.capture_buffer\[44\]
*399 ct\.oc\.capture_buffer\[45\]
*400 ct\.oc\.capture_buffer\[46\]
*401 ct\.oc\.capture_buffer\[47\]
*402 ct\.oc\.capture_buffer\[48\]
*403 ct\.oc\.capture_buffer\[49\]
*404 ct\.oc\.capture_buffer\[4\]
*405 ct\.oc\.capture_buffer\[50\]
*406 ct\.oc\.capture_buffer\[51\]
*407 ct\.oc\.capture_buffer\[52\]
*408 ct\.oc\.capture_buffer\[53\]
*409 ct\.oc\.capture_buffer\[54\]
*410 ct\.oc\.capture_buffer\[55\]
*411 ct\.oc\.capture_buffer\[56\]
*412 ct\.oc\.capture_buffer\[57\]
*413 ct\.oc\.capture_buffer\[58\]
*414 ct\.oc\.capture_buffer\[59\]
*415 ct\.oc\.capture_buffer\[5\]
*416 ct\.oc\.capture_buffer\[60\]
*417 ct\.oc\.capture_buffer\[61\]
*418 ct\.oc\.capture_buffer\[62\]
*419 ct\.oc\.capture_buffer\[63\]
*420 ct\.oc\.capture_buffer\[64\]
*421 ct\.oc\.capture_buffer\[65\]
*422 ct\.oc\.capture_buffer\[66\]
*423 ct\.oc\.capture_buffer\[67\]
*424 ct\.oc\.capture_buffer\[68\]
*425 ct\.oc\.capture_buffer\[69\]
*426 ct\.oc\.capture_buffer\[6\]
*427 ct\.oc\.capture_buffer\[70\]
*428 ct\.oc\.capture_buffer\[71\]
*429 ct\.oc\.capture_buffer\[72\]
*430 ct\.oc\.capture_buffer\[73\]
*431 ct\.oc\.capture_buffer\[74\]
*432 ct\.oc\.capture_buffer\[75\]
*433 ct\.oc\.capture_buffer\[76\]
*434 ct\.oc\.capture_buffer\[77\]
*435 ct\.oc\.capture_buffer\[78\]
*436 ct\.oc\.capture_buffer\[79\]
*437 ct\.oc\.capture_buffer\[7\]
*438 ct\.oc\.capture_buffer\[80\]
*439 ct\.oc\.capture_buffer\[81\]
*440 ct\.oc\.capture_buffer\[82\]
*441 ct\.oc\.capture_buffer\[83\]
*442 ct\.oc\.capture_buffer\[84\]
*443 ct\.oc\.capture_buffer\[85\]
*444 ct\.oc\.capture_buffer\[86\]
*445 ct\.oc\.capture_buffer\[87\]
*446 ct\.oc\.capture_buffer\[88\]
*447 ct\.oc\.capture_buffer\[89\]
*448 ct\.oc\.capture_buffer\[8\]
*449 ct\.oc\.capture_buffer\[90\]
*450 ct\.oc\.capture_buffer\[91\]
*451 ct\.oc\.capture_buffer\[92\]
*452 ct\.oc\.capture_buffer\[93\]
*453 ct\.oc\.capture_buffer\[94\]
*454 ct\.oc\.capture_buffer\[95\]
*455 ct\.oc\.capture_buffer\[96\]
*456 ct\.oc\.capture_buffer\[97\]
*457 ct\.oc\.capture_buffer\[98\]
*458 ct\.oc\.capture_buffer\[99\]
*459 ct\.oc\.capture_buffer\[9\]
*460 ct\.oc\.data_chain\[0\]
*461 ct\.oc\.data_chain\[100\]
*462 ct\.oc\.data_chain\[101\]
*463 ct\.oc\.data_chain\[102\]
*464 ct\.oc\.data_chain\[103\]
*465 ct\.oc\.data_chain\[104\]
*466 ct\.oc\.data_chain\[105\]
*467 ct\.oc\.data_chain\[106\]
*468 ct\.oc\.data_chain\[107\]
*469 ct\.oc\.data_chain\[108\]
*470 ct\.oc\.data_chain\[109\]
*471 ct\.oc\.data_chain\[10\]
*472 ct\.oc\.data_chain\[110\]
*473 ct\.oc\.data_chain\[111\]
*474 ct\.oc\.data_chain\[112\]
*475 ct\.oc\.data_chain\[113\]
*476 ct\.oc\.data_chain\[114\]
*477 ct\.oc\.data_chain\[115\]
*478 ct\.oc\.data_chain\[116\]
*479 ct\.oc\.data_chain\[117\]
*480 ct\.oc\.data_chain\[118\]
*481 ct\.oc\.data_chain\[119\]
*482 ct\.oc\.data_chain\[11\]
*483 ct\.oc\.data_chain\[120\]
*484 ct\.oc\.data_chain\[121\]
*485 ct\.oc\.data_chain\[122\]
*486 ct\.oc\.data_chain\[123\]
*487 ct\.oc\.data_chain\[124\]
*488 ct\.oc\.data_chain\[125\]
*489 ct\.oc\.data_chain\[126\]
*490 ct\.oc\.data_chain\[127\]
*491 ct\.oc\.data_chain\[128\]
*492 ct\.oc\.data_chain\[129\]
*493 ct\.oc\.data_chain\[12\]
*494 ct\.oc\.data_chain\[130\]
*495 ct\.oc\.data_chain\[131\]
*496 ct\.oc\.data_chain\[132\]
*497 ct\.oc\.data_chain\[133\]
*498 ct\.oc\.data_chain\[134\]
*499 ct\.oc\.data_chain\[135\]
*500 ct\.oc\.data_chain\[136\]
*501 ct\.oc\.data_chain\[137\]
*502 ct\.oc\.data_chain\[138\]
*503 ct\.oc\.data_chain\[139\]
*504 ct\.oc\.data_chain\[13\]
*505 ct\.oc\.data_chain\[140\]
*506 ct\.oc\.data_chain\[141\]
*507 ct\.oc\.data_chain\[142\]
*508 ct\.oc\.data_chain\[143\]
*509 ct\.oc\.data_chain\[144\]
*510 ct\.oc\.data_chain\[145\]
*511 ct\.oc\.data_chain\[146\]
*512 ct\.oc\.data_chain\[147\]
*513 ct\.oc\.data_chain\[148\]
*514 ct\.oc\.data_chain\[149\]
*515 ct\.oc\.data_chain\[14\]
*516 ct\.oc\.data_chain\[150\]
*517 ct\.oc\.data_chain\[151\]
*518 ct\.oc\.data_chain\[152\]
*519 ct\.oc\.data_chain\[153\]
*520 ct\.oc\.data_chain\[154\]
*521 ct\.oc\.data_chain\[155\]
*522 ct\.oc\.data_chain\[156\]
*523 ct\.oc\.data_chain\[157\]
*524 ct\.oc\.data_chain\[158\]
*525 ct\.oc\.data_chain\[159\]
*526 ct\.oc\.data_chain\[15\]
*527 ct\.oc\.data_chain\[160\]
*528 ct\.oc\.data_chain\[161\]
*529 ct\.oc\.data_chain\[162\]
*530 ct\.oc\.data_chain\[163\]
*531 ct\.oc\.data_chain\[164\]
*532 ct\.oc\.data_chain\[165\]
*533 ct\.oc\.data_chain\[166\]
*534 ct\.oc\.data_chain\[167\]
*535 ct\.oc\.data_chain\[168\]
*536 ct\.oc\.data_chain\[169\]
*537 ct\.oc\.data_chain\[16\]
*538 ct\.oc\.data_chain\[170\]
*539 ct\.oc\.data_chain\[171\]
*540 ct\.oc\.data_chain\[172\]
*541 ct\.oc\.data_chain\[173\]
*542 ct\.oc\.data_chain\[174\]
*543 ct\.oc\.data_chain\[175\]
*544 ct\.oc\.data_chain\[176\]
*545 ct\.oc\.data_chain\[177\]
*546 ct\.oc\.data_chain\[178\]
*547 ct\.oc\.data_chain\[179\]
*548 ct\.oc\.data_chain\[17\]
*549 ct\.oc\.data_chain\[180\]
*550 ct\.oc\.data_chain\[181\]
*551 ct\.oc\.data_chain\[182\]
*552 ct\.oc\.data_chain\[183\]
*553 ct\.oc\.data_chain\[184\]
*554 ct\.oc\.data_chain\[185\]
*555 ct\.oc\.data_chain\[186\]
*556 ct\.oc\.data_chain\[187\]
*557 ct\.oc\.data_chain\[188\]
*558 ct\.oc\.data_chain\[189\]
*559 ct\.oc\.data_chain\[18\]
*560 ct\.oc\.data_chain\[190\]
*561 ct\.oc\.data_chain\[191\]
*562 ct\.oc\.data_chain\[192\]
*563 ct\.oc\.data_chain\[193\]
*564 ct\.oc\.data_chain\[194\]
*565 ct\.oc\.data_chain\[195\]
*566 ct\.oc\.data_chain\[196\]
*567 ct\.oc\.data_chain\[197\]
*568 ct\.oc\.data_chain\[198\]
*569 ct\.oc\.data_chain\[199\]
*570 ct\.oc\.data_chain\[19\]
*571 ct\.oc\.data_chain\[1\]
*572 ct\.oc\.data_chain\[200\]
*573 ct\.oc\.data_chain\[201\]
*574 ct\.oc\.data_chain\[202\]
*575 ct\.oc\.data_chain\[203\]
*576 ct\.oc\.data_chain\[204\]
*577 ct\.oc\.data_chain\[205\]
*578 ct\.oc\.data_chain\[206\]
*579 ct\.oc\.data_chain\[207\]
*580 ct\.oc\.data_chain\[208\]
*581 ct\.oc\.data_chain\[209\]
*582 ct\.oc\.data_chain\[20\]
*583 ct\.oc\.data_chain\[210\]
*584 ct\.oc\.data_chain\[211\]
*585 ct\.oc\.data_chain\[212\]
*586 ct\.oc\.data_chain\[213\]
*587 ct\.oc\.data_chain\[214\]
*588 ct\.oc\.data_chain\[215\]
*589 ct\.oc\.data_chain\[216\]
*590 ct\.oc\.data_chain\[217\]
*591 ct\.oc\.data_chain\[218\]
*592 ct\.oc\.data_chain\[219\]
*593 ct\.oc\.data_chain\[21\]
*594 ct\.oc\.data_chain\[220\]
*595 ct\.oc\.data_chain\[221\]
*596 ct\.oc\.data_chain\[222\]
*597 ct\.oc\.data_chain\[223\]
*598 ct\.oc\.data_chain\[224\]
*599 ct\.oc\.data_chain\[225\]
*600 ct\.oc\.data_chain\[226\]
*601 ct\.oc\.data_chain\[227\]
*602 ct\.oc\.data_chain\[228\]
*603 ct\.oc\.data_chain\[229\]
*604 ct\.oc\.data_chain\[22\]
*605 ct\.oc\.data_chain\[230\]
*606 ct\.oc\.data_chain\[231\]
*607 ct\.oc\.data_chain\[232\]
*608 ct\.oc\.data_chain\[233\]
*609 ct\.oc\.data_chain\[234\]
*610 ct\.oc\.data_chain\[235\]
*611 ct\.oc\.data_chain\[236\]
*612 ct\.oc\.data_chain\[237\]
*613 ct\.oc\.data_chain\[238\]
*614 ct\.oc\.data_chain\[239\]
*615 ct\.oc\.data_chain\[23\]
*616 ct\.oc\.data_chain\[240\]
*617 ct\.oc\.data_chain\[241\]
*618 ct\.oc\.data_chain\[242\]
*619 ct\.oc\.data_chain\[243\]
*620 ct\.oc\.data_chain\[244\]
*621 ct\.oc\.data_chain\[245\]
*622 ct\.oc\.data_chain\[246\]
*623 ct\.oc\.data_chain\[247\]
*624 ct\.oc\.data_chain\[248\]
*625 ct\.oc\.data_chain\[249\]
*626 ct\.oc\.data_chain\[24\]
*627 ct\.oc\.data_chain\[250\]
*628 ct\.oc\.data_chain\[251\]
*629 ct\.oc\.data_chain\[252\]
*630 ct\.oc\.data_chain\[253\]
*631 ct\.oc\.data_chain\[254\]
*632 ct\.oc\.data_chain\[255\]
*633 ct\.oc\.data_chain\[256\]
*634 ct\.oc\.data_chain\[257\]
*635 ct\.oc\.data_chain\[258\]
*636 ct\.oc\.data_chain\[259\]
*637 ct\.oc\.data_chain\[25\]
*638 ct\.oc\.data_chain\[260\]
*639 ct\.oc\.data_chain\[261\]
*640 ct\.oc\.data_chain\[262\]
*641 ct\.oc\.data_chain\[263\]
*642 ct\.oc\.data_chain\[264\]
*643 ct\.oc\.data_chain\[265\]
*644 ct\.oc\.data_chain\[266\]
*645 ct\.oc\.data_chain\[267\]
*646 ct\.oc\.data_chain\[268\]
*647 ct\.oc\.data_chain\[269\]
*648 ct\.oc\.data_chain\[26\]
*649 ct\.oc\.data_chain\[270\]
*650 ct\.oc\.data_chain\[271\]
*651 ct\.oc\.data_chain\[272\]
*652 ct\.oc\.data_chain\[273\]
*653 ct\.oc\.data_chain\[274\]
*654 ct\.oc\.data_chain\[275\]
*655 ct\.oc\.data_chain\[276\]
*656 ct\.oc\.data_chain\[277\]
*657 ct\.oc\.data_chain\[278\]
*658 ct\.oc\.data_chain\[279\]
*659 ct\.oc\.data_chain\[27\]
*660 ct\.oc\.data_chain\[280\]
*661 ct\.oc\.data_chain\[281\]
*662 ct\.oc\.data_chain\[282\]
*663 ct\.oc\.data_chain\[283\]
*664 ct\.oc\.data_chain\[284\]
*665 ct\.oc\.data_chain\[285\]
*666 ct\.oc\.data_chain\[286\]
*667 ct\.oc\.data_chain\[287\]
*668 ct\.oc\.data_chain\[288\]
*669 ct\.oc\.data_chain\[289\]
*670 ct\.oc\.data_chain\[28\]
*671 ct\.oc\.data_chain\[290\]
*672 ct\.oc\.data_chain\[291\]
*673 ct\.oc\.data_chain\[292\]
*674 ct\.oc\.data_chain\[293\]
*675 ct\.oc\.data_chain\[294\]
*676 ct\.oc\.data_chain\[295\]
*677 ct\.oc\.data_chain\[296\]
*678 ct\.oc\.data_chain\[297\]
*679 ct\.oc\.data_chain\[298\]
*680 ct\.oc\.data_chain\[299\]
*681 ct\.oc\.data_chain\[29\]
*682 ct\.oc\.data_chain\[2\]
*683 ct\.oc\.data_chain\[300\]
*684 ct\.oc\.data_chain\[301\]
*685 ct\.oc\.data_chain\[302\]
*686 ct\.oc\.data_chain\[303\]
*687 ct\.oc\.data_chain\[304\]
*688 ct\.oc\.data_chain\[305\]
*689 ct\.oc\.data_chain\[306\]
*690 ct\.oc\.data_chain\[307\]
*691 ct\.oc\.data_chain\[308\]
*692 ct\.oc\.data_chain\[309\]
*693 ct\.oc\.data_chain\[30\]
*694 ct\.oc\.data_chain\[310\]
*695 ct\.oc\.data_chain\[311\]
*696 ct\.oc\.data_chain\[312\]
*697 ct\.oc\.data_chain\[313\]
*698 ct\.oc\.data_chain\[314\]
*699 ct\.oc\.data_chain\[315\]
*700 ct\.oc\.data_chain\[316\]
*701 ct\.oc\.data_chain\[317\]
*702 ct\.oc\.data_chain\[318\]
*703 ct\.oc\.data_chain\[319\]
*704 ct\.oc\.data_chain\[31\]
*705 ct\.oc\.data_chain\[320\]
*706 ct\.oc\.data_chain\[321\]
*707 ct\.oc\.data_chain\[322\]
*708 ct\.oc\.data_chain\[323\]
*709 ct\.oc\.data_chain\[324\]
*710 ct\.oc\.data_chain\[325\]
*711 ct\.oc\.data_chain\[326\]
*712 ct\.oc\.data_chain\[327\]
*713 ct\.oc\.data_chain\[328\]
*714 ct\.oc\.data_chain\[329\]
*715 ct\.oc\.data_chain\[32\]
*716 ct\.oc\.data_chain\[330\]
*717 ct\.oc\.data_chain\[331\]
*718 ct\.oc\.data_chain\[332\]
*719 ct\.oc\.data_chain\[333\]
*720 ct\.oc\.data_chain\[334\]
*721 ct\.oc\.data_chain\[335\]
*722 ct\.oc\.data_chain\[336\]
*723 ct\.oc\.data_chain\[337\]
*724 ct\.oc\.data_chain\[338\]
*725 ct\.oc\.data_chain\[339\]
*726 ct\.oc\.data_chain\[33\]
*727 ct\.oc\.data_chain\[340\]
*728 ct\.oc\.data_chain\[341\]
*729 ct\.oc\.data_chain\[342\]
*730 ct\.oc\.data_chain\[343\]
*731 ct\.oc\.data_chain\[344\]
*732 ct\.oc\.data_chain\[345\]
*733 ct\.oc\.data_chain\[346\]
*734 ct\.oc\.data_chain\[347\]
*735 ct\.oc\.data_chain\[348\]
*736 ct\.oc\.data_chain\[349\]
*737 ct\.oc\.data_chain\[34\]
*738 ct\.oc\.data_chain\[350\]
*739 ct\.oc\.data_chain\[351\]
*740 ct\.oc\.data_chain\[35\]
*741 ct\.oc\.data_chain\[36\]
*742 ct\.oc\.data_chain\[37\]
*743 ct\.oc\.data_chain\[38\]
*744 ct\.oc\.data_chain\[39\]
*745 ct\.oc\.data_chain\[3\]
*746 ct\.oc\.data_chain\[40\]
*747 ct\.oc\.data_chain\[41\]
*748 ct\.oc\.data_chain\[42\]
*749 ct\.oc\.data_chain\[43\]
*750 ct\.oc\.data_chain\[44\]
*751 ct\.oc\.data_chain\[45\]
*752 ct\.oc\.data_chain\[46\]
*753 ct\.oc\.data_chain\[47\]
*754 ct\.oc\.data_chain\[48\]
*755 ct\.oc\.data_chain\[49\]
*756 ct\.oc\.data_chain\[4\]
*757 ct\.oc\.data_chain\[50\]
*758 ct\.oc\.data_chain\[51\]
*759 ct\.oc\.data_chain\[52\]
*760 ct\.oc\.data_chain\[53\]
*761 ct\.oc\.data_chain\[54\]
*762 ct\.oc\.data_chain\[55\]
*763 ct\.oc\.data_chain\[56\]
*764 ct\.oc\.data_chain\[57\]
*765 ct\.oc\.data_chain\[58\]
*766 ct\.oc\.data_chain\[59\]
*767 ct\.oc\.data_chain\[5\]
*768 ct\.oc\.data_chain\[60\]
*769 ct\.oc\.data_chain\[61\]
*770 ct\.oc\.data_chain\[62\]
*771 ct\.oc\.data_chain\[63\]
*772 ct\.oc\.data_chain\[64\]
*773 ct\.oc\.data_chain\[65\]
*774 ct\.oc\.data_chain\[66\]
*775 ct\.oc\.data_chain\[67\]
*776 ct\.oc\.data_chain\[68\]
*777 ct\.oc\.data_chain\[69\]
*778 ct\.oc\.data_chain\[6\]
*779 ct\.oc\.data_chain\[70\]
*780 ct\.oc\.data_chain\[71\]
*781 ct\.oc\.data_chain\[72\]
*782 ct\.oc\.data_chain\[73\]
*783 ct\.oc\.data_chain\[74\]
*784 ct\.oc\.data_chain\[75\]
*785 ct\.oc\.data_chain\[76\]
*786 ct\.oc\.data_chain\[77\]
*787 ct\.oc\.data_chain\[78\]
*788 ct\.oc\.data_chain\[79\]
*789 ct\.oc\.data_chain\[7\]
*790 ct\.oc\.data_chain\[80\]
*791 ct\.oc\.data_chain\[81\]
*792 ct\.oc\.data_chain\[82\]
*793 ct\.oc\.data_chain\[83\]
*794 ct\.oc\.data_chain\[84\]
*795 ct\.oc\.data_chain\[85\]
*796 ct\.oc\.data_chain\[86\]
*797 ct\.oc\.data_chain\[87\]
*798 ct\.oc\.data_chain\[88\]
*799 ct\.oc\.data_chain\[89\]
*800 ct\.oc\.data_chain\[8\]
*801 ct\.oc\.data_chain\[90\]
*802 ct\.oc\.data_chain\[91\]
*803 ct\.oc\.data_chain\[92\]
*804 ct\.oc\.data_chain\[93\]
*805 ct\.oc\.data_chain\[94\]
*806 ct\.oc\.data_chain\[95\]
*807 ct\.oc\.data_chain\[96\]
*808 ct\.oc\.data_chain\[97\]
*809 ct\.oc\.data_chain\[98\]
*810 ct\.oc\.data_chain\[99\]
*811 ct\.oc\.data_chain\[9\]
*812 ct\.oc\.mode_buffer\[0\]
*813 ct\.oc\.mode_buffer\[10\]
*814 ct\.oc\.mode_buffer\[11\]
*815 ct\.oc\.mode_buffer\[12\]
*816 ct\.oc\.mode_buffer\[13\]
*817 ct\.oc\.mode_buffer\[14\]
*818 ct\.oc\.mode_buffer\[15\]
*819 ct\.oc\.mode_buffer\[16\]
*820 ct\.oc\.mode_buffer\[17\]
*821 ct\.oc\.mode_buffer\[18\]
*822 ct\.oc\.mode_buffer\[19\]
*823 ct\.oc\.mode_buffer\[1\]
*824 ct\.oc\.mode_buffer\[20\]
*825 ct\.oc\.mode_buffer\[21\]
*826 ct\.oc\.mode_buffer\[22\]
*827 ct\.oc\.mode_buffer\[23\]
*828 ct\.oc\.mode_buffer\[24\]
*829 ct\.oc\.mode_buffer\[25\]
*830 ct\.oc\.mode_buffer\[26\]
*831 ct\.oc\.mode_buffer\[27\]
*832 ct\.oc\.mode_buffer\[28\]
*833 ct\.oc\.mode_buffer\[29\]
*834 ct\.oc\.mode_buffer\[2\]
*835 ct\.oc\.mode_buffer\[30\]
*836 ct\.oc\.mode_buffer\[31\]
*837 ct\.oc\.mode_buffer\[32\]
*838 ct\.oc\.mode_buffer\[33\]
*839 ct\.oc\.mode_buffer\[34\]
*840 ct\.oc\.mode_buffer\[35\]
*841 ct\.oc\.mode_buffer\[36\]
*842 ct\.oc\.mode_buffer\[37\]
*843 ct\.oc\.mode_buffer\[38\]
*844 ct\.oc\.mode_buffer\[39\]
*845 ct\.oc\.mode_buffer\[3\]
*846 ct\.oc\.mode_buffer\[40\]
*847 ct\.oc\.mode_buffer\[41\]
*848 ct\.oc\.mode_buffer\[42\]
*849 ct\.oc\.mode_buffer\[43\]
*850 ct\.oc\.mode_buffer\[4\]
*851 ct\.oc\.mode_buffer\[5\]
*852 ct\.oc\.mode_buffer\[6\]
*853 ct\.oc\.mode_buffer\[7\]
*854 ct\.oc\.mode_buffer\[8\]
*855 ct\.oc\.mode_buffer\[9\]
*856 ct\.oc\.trig_chain\[10\]
*857 ct\.oc\.trig_chain\[11\]
*858 ct\.oc\.trig_chain\[12\]
*859 ct\.oc\.trig_chain\[13\]
*860 ct\.oc\.trig_chain\[14\]
*861 ct\.oc\.trig_chain\[15\]
*862 ct\.oc\.trig_chain\[16\]
*863 ct\.oc\.trig_chain\[17\]
*864 ct\.oc\.trig_chain\[18\]
*865 ct\.oc\.trig_chain\[19\]
*866 ct\.oc\.trig_chain\[1\]
*867 ct\.oc\.trig_chain\[20\]
*868 ct\.oc\.trig_chain\[21\]
*869 ct\.oc\.trig_chain\[22\]
*870 ct\.oc\.trig_chain\[23\]
*871 ct\.oc\.trig_chain\[24\]
*872 ct\.oc\.trig_chain\[25\]
*873 ct\.oc\.trig_chain\[26\]
*874 ct\.oc\.trig_chain\[27\]
*875 ct\.oc\.trig_chain\[28\]
*876 ct\.oc\.trig_chain\[29\]
*877 ct\.oc\.trig_chain\[2\]
*878 ct\.oc\.trig_chain\[30\]
*879 ct\.oc\.trig_chain\[31\]
*880 ct\.oc\.trig_chain\[32\]
*881 ct\.oc\.trig_chain\[33\]
*882 ct\.oc\.trig_chain\[34\]
*883 ct\.oc\.trig_chain\[35\]
*884 ct\.oc\.trig_chain\[36\]
*885 ct\.oc\.trig_chain\[37\]
*886 ct\.oc\.trig_chain\[38\]
*887 ct\.oc\.trig_chain\[39\]
*888 ct\.oc\.trig_chain\[3\]
*889 ct\.oc\.trig_chain\[40\]
*890 ct\.oc\.trig_chain\[41\]
*891 ct\.oc\.trig_chain\[42\]
*892 ct\.oc\.trig_chain\[43\]
*893 ct\.oc\.trig_chain\[44\]
*894 ct\.oc\.trig_chain\[4\]
*895 ct\.oc\.trig_chain\[5\]
*896 ct\.oc\.trig_chain\[6\]
*897 ct\.oc\.trig_chain\[7\]
*898 ct\.oc\.trig_chain\[8\]
*899 ct\.oc\.trig_chain\[9\]
*900 ct\.ro\.counter\[0\]
*901 ct\.ro\.counter\[1\]
*902 ct\.ro\.counter\[2\]
*903 ct\.ro\.counter\[3\]
*904 ct\.ro\.counter\[4\]
*905 ct\.ro\.counter\[5\]
*906 ct\.ro\.counter\[6\]
*907 ct\.ro\.counter\[7\]
*908 ct\.ro\.counter_n\[0\]
*909 ct\.ro\.counter_n\[1\]
*910 ct\.ro\.counter_n\[2\]
*911 ct\.ro\.counter_n\[3\]
*912 ct\.ro\.counter_n\[4\]
*913 ct\.ro\.counter_n\[5\]
*914 ct\.ro\.counter_n\[6\]
*915 ct\.ro\.counter_n\[7\]
*916 ct\.ro\.gate
*917 ct\.ro\.ring\[0\]
*918 ct\.ro\.ring\[1\]
*919 ct\.ro\.ring\[2\]
*920 net1
*921 net10
*922 net11
*923 net12
*924 net13
*925 net14
*926 net15
*927 net16
*928 net17
*929 net18
*930 net19
*931 net2
*932 net20
*933 net21
*934 net22
*935 net23
*936 net24
*937 net25
*938 net26
*939 net27
*940 net28
*941 net29
*942 net3
*943 net30
*944 net31
*945 net32
*946 net33
*947 net34
*948 net35
*949 net36
*950 net37
*951 net38
*952 net39
*953 net4
*954 net40
*955 net41
*956 net42
*957 net43
*958 net44
*959 net45
*960 net46
*961 net47
*962 net48
*963 net49
*964 net5
*965 net50
*966 net51
*967 net52
*968 net53
*969 net6
*970 net7
*971 net8
*972 net9
*973 ANTENNA_1
*974 ANTENNA_10
*975 ANTENNA_11
*976 ANTENNA_12
*977 ANTENNA_13
*978 ANTENNA_14
*979 ANTENNA_15
*980 ANTENNA_16
*981 ANTENNA_17
*982 ANTENNA_18
*983 ANTENNA_19
*984 ANTENNA_2
*985 ANTENNA_20
*986 ANTENNA_21
*987 ANTENNA_22
*988 ANTENNA_23
*989 ANTENNA_24
*990 ANTENNA_25
*991 ANTENNA_26
*992 ANTENNA_3
*993 ANTENNA_4
*994 ANTENNA_5
*995 ANTENNA_6
*996 ANTENNA_7
*997 ANTENNA_8
*998 ANTENNA_9
*999 FILLER_0_0_29
*1000 FILLER_0_0_3
*1001 FILLER_0_0_312
*1002 FILLER_0_0_324
*1003 FILLER_0_0_33
*1004 FILLER_0_0_37
*1005 FILLER_0_0_45
*1006 FILLER_0_0_49
*1007 FILLER_0_0_81
*1008 FILLER_0_10_115
*1009 FILLER_0_10_174
*1010 FILLER_0_10_248
*1011 FILLER_0_10_253
*1012 FILLER_0_10_279
*1013 FILLER_0_10_3
*1014 FILLER_0_10_312