* NGSPICE file created from tt_um_htfab_cell_tester.ext - technology: sky130A

* Black-box entry subcircuit for sky130_fd_sc_hd__fill_2 abstract view
.subckt sky130_fd_sc_hd__fill_2 VGND VNB VPB VPWR
.ends

* Black-box entry subcircuit for sky130_fd_sc_hd__tapvpwrvgnd_1 abstract view
.subckt sky130_fd_sc_hd__tapvpwrvgnd_1 VGND VPWR
.ends

* Black-box entry subcircuit for sky130_fd_sc_hd__fill_1 abstract view
.subckt sky130_fd_sc_hd__fill_1 VGND VNB VPB VPWR
.ends

* Black-box entry subcircuit for sky130_fd_sc_hd__clkbuf_1 abstract view
.subckt sky130_fd_sc_hd__clkbuf_1 A VGND VNB VPB VPWR X
.ends

* Black-box entry subcircuit for sky130_fd_sc_hd__buf_4 abstract view
.subckt sky130_fd_sc_hd__buf_4 A VGND VNB VPB VPWR X
.ends

* Black-box entry subcircuit for sky130_fd_sc_hd__clkbuf_4 abstract view
.subckt sky130_fd_sc_hd__clkbuf_4 A VGND VNB VPB VPWR X
.ends

* Black-box entry subcircuit for sky130_fd_sc_hd__decap_3 abstract view
.subckt sky130_fd_sc_hd__decap_3 VGND VNB VPB VPWR
.ends

* Black-box entry subcircuit for sky130_fd_sc_hd__sdfxtp_4 abstract view
.subckt sky130_fd_sc_hd__sdfxtp_4 CLK D SCD SCE VGND VNB VPB VPWR Q
.ends

* Black-box entry subcircuit for sky130_fd_sc_hd__diode_2 abstract view
.subckt sky130_fd_sc_hd__diode_2 DIODE VGND VNB VPB VPWR
.ends

* Black-box entry subcircuit for sky130_fd_sc_hd__buf_1 abstract view
.subckt sky130_fd_sc_hd__buf_1 A VGND VNB VPB VPWR X
.ends

* Black-box entry subcircuit for sky130_fd_sc_hd__dfxtp_4 abstract view
.subckt sky130_fd_sc_hd__dfxtp_4 CLK D VGND VNB VPB VPWR Q
.ends

* Black-box entry subcircuit for sky130_fd_sc_hd__dfrbp_2 abstract view
.subckt sky130_fd_sc_hd__dfrbp_2 CLK D RESET_B VGND VNB VPB VPWR Q Q_N
.ends

* Black-box entry subcircuit for sky130_fd_sc_hd__mux2i_2 abstract view
.subckt sky130_fd_sc_hd__mux2i_2 A0 A1 S VGND VNB VPB VPWR Y
.ends

* Black-box entry subcircuit for sky130_fd_sc_hd__decap_6 abstract view
.subckt sky130_fd_sc_hd__decap_6 VGND VNB VPB VPWR
.ends

* Black-box entry subcircuit for sky130_fd_sc_hd__decap_4 abstract view
.subckt sky130_fd_sc_hd__decap_4 VGND VNB VPB VPWR
.ends

* Black-box entry subcircuit for sky130_ht_sc_tt05__mux2i_2 abstract view
.subckt sky130_ht_sc_tt05__mux2i_2 VNB VPB VGND VPWR A0 A1 S Y
.ends

* Black-box entry subcircuit for sky130_fd_sc_hd__maj3_2 abstract view
.subckt sky130_fd_sc_hd__maj3_2 A B C VGND VNB VPB VPWR X
.ends

* Black-box entry subcircuit for sky130_ht_sc_tt05__maj3_2 abstract view
.subckt sky130_ht_sc_tt05__maj3_2 VNB VPB VGND VPWR A B C X
.ends

* Black-box entry subcircuit for sky130_fd_sc_hd__decap_8 abstract view
.subckt sky130_fd_sc_hd__decap_8 VGND VNB VPB VPWR
.ends

* Black-box entry subcircuit for sky130_ef_sc_hd__decap_12 abstract view
.subckt sky130_ef_sc_hd__decap_12 VGND VPWR VPB VNB
.ends

* Black-box entry subcircuit for sky130_fd_sc_hd__a21o_1 abstract view
.subckt sky130_fd_sc_hd__a21o_1 A1 A2 B1 VGND VNB VPB VPWR X
.ends

* Black-box entry subcircuit for sky130_fd_sc_hd__clkbuf_2 abstract view
.subckt sky130_fd_sc_hd__clkbuf_2 A VGND VNB VPB VPWR X
.ends

* Black-box entry subcircuit for sky130_fd_sc_hd__dlrtp_1 abstract view
.subckt sky130_fd_sc_hd__dlrtp_1 D GATE RESET_B VGND VNB VPB VPWR Q
.ends

* Black-box entry subcircuit for sky130_fd_sc_hd__conb_1 abstract view
.subckt sky130_fd_sc_hd__conb_1 VGND VNB VPB VPWR HI LO
.ends

* Black-box entry subcircuit for sky130_fd_sc_hd__mux2_1 abstract view
.subckt sky130_fd_sc_hd__mux2_1 A0 A1 S VGND VNB VPB VPWR X
.ends

* Black-box entry subcircuit for sky130_ht_sc_tt05__dlrtp_1 abstract view
.subckt sky130_ht_sc_tt05__dlrtp_1 VNB VPB VGND VPWR GATE D RESET_B Q
.ends

* Black-box entry subcircuit for sky130_fd_sc_hd__mux4_1 abstract view
.subckt sky130_fd_sc_hd__mux4_1 A0 A1 A2 A3 S0 S1 VGND VNB VPB VPWR X
.ends

* Black-box entry subcircuit for sky130_fd_sc_hd__dfrtp_1 abstract view
.subckt sky130_fd_sc_hd__dfrtp_1 CLK D RESET_B VGND VNB VPB VPWR Q
.ends

* Black-box entry subcircuit for sky130_fd_sc_hd__buf_2 abstract view
.subckt sky130_fd_sc_hd__buf_2 A VGND VNB VPB VPWR X
.ends

* Black-box entry subcircuit for sky130_ht_sc_tt05__dfrtp_1 abstract view
.subckt sky130_ht_sc_tt05__dfrtp_1 VNB VPB VGND VPWR CLK D RESET_B Q
.ends

* Black-box entry subcircuit for sky130_fd_sc_hd__inv_2 abstract view
.subckt sky130_fd_sc_hd__inv_2 A VGND VNB VPB VPWR Y
.ends

* Black-box entry subcircuit for sky130_fd_sc_hd__dlymetal6s2s_1 abstract view
.subckt sky130_fd_sc_hd__dlymetal6s2s_1 A VGND VNB VPB VPWR X
.ends

* Black-box entry subcircuit for sky130_fd_sc_hd__nand2_4 abstract view
.subckt sky130_fd_sc_hd__nand2_4 A B VGND VNB VPB VPWR Y
.ends

* Black-box entry subcircuit for sky130_fd_sc_hd__inv_4 abstract view
.subckt sky130_fd_sc_hd__inv_4 A VGND VNB VPB VPWR Y
.ends

* Black-box entry subcircuit for sky130_fd_sc_hd__dlclkp_4 abstract view
.subckt sky130_fd_sc_hd__dlclkp_4 CLK GATE VGND VNB VPB VPWR GCLK
.ends

* Black-box entry subcircuit for sky130_fd_sc_hd__and2_1 abstract view
.subckt sky130_fd_sc_hd__and2_1 A B VGND VNB VPB VPWR X
.ends

.subckt tt_um_htfab_cell_tester VGND VPWR clk ena rst_n ui_in[0] ui_in[1] ui_in[2]
+ ui_in[3] ui_in[4] ui_in[5] ui_in[6] ui_in[7] uio_in[0] uio_in[1] uio_in[2] uio_in[3]
+ uio_in[4] uio_in[5] uio_in[6] uio_in[7] uio_oe[2] uio_oe[3] uio_oe[4] uio_oe[7]
+ uio_out[0] uio_out[1] uio_out[2] uio_out[3] uio_out[4] uio_out[5] uio_out[6] uio_out[7]
+ uo_out[0] uo_out[1] uo_out[2] uo_out[3] uo_out[4] uo_out[5] uo_out[6] uo_out[7]
+ uio_oe[1] uio_oe[0] uio_oe[6] uio_oe[5]
XFILLER_0_17_200 VGND VGND VPWR VPWR sky130_fd_sc_hd__fill_2
XTAP_TAPCELL_ROW_17_180 VGND VPWR sky130_fd_sc_hd__tapvpwrvgnd_1
XTAP_TAPCELL_ROW_9_137 VGND VPWR sky130_fd_sc_hd__tapvpwrvgnd_1
XFILLER_0_23_225 VGND VGND VPWR VPWR sky130_fd_sc_hd__fill_1
XTAP_TAPCELL_ROW_14_161 VGND VPWR sky130_fd_sc_hd__tapvpwrvgnd_1
Xct.oc.frame\[15\].bits\[2\].rs_cbuf net36 VGND VGND VPWR VPWR ct.oc.capture_buffer\[122\]
+ sky130_fd_sc_hd__clkbuf_1
XTAP_TAPCELL_ROW_6_118 VGND VPWR sky130_fd_sc_hd__tapvpwrvgnd_1
XTAP_TAPCELL_ROW_20_197 VGND VPWR sky130_fd_sc_hd__tapvpwrvgnd_1
Xct.oc.frame\[35\].bits\[2\].rs_cbuf net32 VGND VGND VPWR VPWR ct.oc.capture_buffer\[282\]
+ sky130_fd_sc_hd__clkbuf_1
XTAP_TAPCELL_ROW_28_242 VGND VPWR sky130_fd_sc_hd__tapvpwrvgnd_1
Xct.oc.frame\[29\].bits\[7\].rs_cbuf net6 VGND VGND VPWR VPWR ct.oc.capture_buffer\[239\]
+ sky130_fd_sc_hd__clkbuf_1
XFILLER_0_10_250 VGND VGND VPWR VPWR sky130_fd_sc_hd__fill_2
XFILLER_0_10_283 VGND VGND VPWR VPWR sky130_fd_sc_hd__fill_1
Xct.oc.frame\[6\].bits\[2\].rs_cbuf net31 VGND VGND VPWR VPWR ct.oc.capture_buffer\[50\]
+ sky130_fd_sc_hd__clkbuf_1
Xct.oc.frame\[12\].rs_mbuf net53 VGND VGND VPWR VPWR ct.oc.mode_buffer\[12\] sky130_fd_sc_hd__buf_4
XTAP_TAPCELL_ROW_25_223 VGND VPWR sky130_fd_sc_hd__tapvpwrvgnd_1
XFILLER_0_0_29 VGND VGND VPWR VPWR sky130_fd_sc_hd__fill_2
Xct.ic.frame\[3\].cc_clkbuf ct.ic.trig_chain\[3\] VGND VGND VPWR VPWR ct.ic.trig_chain\[4\]
+ sky130_fd_sc_hd__clkbuf_4
XFILLER_0_19_103 VGND VGND VPWR VPWR sky130_fd_sc_hd__fill_1
XTAP_TAPCELL_ROW_22_204 VGND VPWR sky130_fd_sc_hd__tapvpwrvgnd_1
XFILLER_0_19_169 VGND VGND VPWR VPWR sky130_fd_sc_hd__decap_3
XPHY_EDGE_ROW_8_Left_47 VGND VGND VPWR VPWR sky130_fd_sc_hd__decap_3
XFILLER_0_21_323 VGND VGND VPWR VPWR sky130_fd_sc_hd__fill_1
XFILLER_0_16_139 VGND VGND VPWR VPWR sky130_fd_sc_hd__fill_1
Xct.oc.frame\[7\].rs_mbuf net54 VGND VGND VPWR VPWR ct.oc.mode_buffer\[7\] sky130_fd_sc_hd__buf_4
Xfanout7 ct.cw.target\[7\] VGND VGND VPWR VPWR net7 sky130_fd_sc_hd__clkbuf_4
XFILLER_0_34_3 VGND VGND VPWR VPWR sky130_fd_sc_hd__fill_1
Xct.oc.frame\[33\].bits\[0\].cc_scanflop ct.oc.trig_chain\[34\] ct.oc.data_chain\[272\]
+ ct.oc.capture_buffer\[264\] ct.oc.mode_buffer\[33\] VGND VGND VPWR VPWR ct.oc.data_chain\[264\]
+ sky130_fd_sc_hd__sdfxtp_4
Xct.oc.frame\[25\].bits\[4\].rs_cbuf net23 VGND VGND VPWR VPWR ct.oc.capture_buffer\[204\]
+ sky130_fd_sc_hd__clkbuf_1
Xct.oc.frame\[40\].bits\[4\].cc_scanflop ct.oc.trig_chain\[41\] ct.oc.data_chain\[332\]
+ ct.oc.capture_buffer\[324\] ct.oc.mode_buffer\[40\] VGND VGND VPWR VPWR ct.oc.data_chain\[324\]
+ sky130_fd_sc_hd__sdfxtp_4
Xct.oc.frame\[10\].bits\[1\].cc_scanflop ct.oc.trig_chain\[11\] ct.oc.data_chain\[89\]
+ ct.oc.capture_buffer\[81\] ct.oc.mode_buffer\[10\] VGND VGND VPWR VPWR ct.oc.data_chain\[81\]
+ sky130_fd_sc_hd__sdfxtp_4
XFILLER_0_30_197 VGND VGND VPWR VPWR sky130_fd_sc_hd__fill_1
Xct.oc.frame\[34\].bits\[2\].cc_scanflop ct.oc.trig_chain\[35\] ct.oc.data_chain\[282\]
+ ct.oc.capture_buffer\[274\] ct.oc.mode_buffer\[34\] VGND VGND VPWR VPWR ct.oc.data_chain\[274\]
+ sky130_fd_sc_hd__sdfxtp_4
XANTENNA_5 ct.ic.data_chain\[10\] VGND VGND VPWR VPWR sky130_fd_sc_hd__diode_2
Xct.oc.frame\[28\].bits\[0\].cc_scanflop ct.oc.trig_chain\[29\] ct.oc.data_chain\[232\]
+ ct.oc.capture_buffer\[224\] ct.oc.mode_buffer\[28\] VGND VGND VPWR VPWR ct.oc.data_chain\[224\]
+ sky130_fd_sc_hd__sdfxtp_4
Xct.oc.frame\[11\].bits\[3\].cc_scanflop ct.oc.trig_chain\[12\] ct.oc.data_chain\[99\]
+ ct.oc.capture_buffer\[91\] ct.oc.mode_buffer\[11\] VGND VGND VPWR VPWR ct.oc.data_chain\[91\]
+ sky130_fd_sc_hd__sdfxtp_4
Xct.oc.frame\[41\].bits\[6\].cc_scanflop ct.oc.trig_chain\[42\] ct.oc.data_chain\[342\]
+ ct.oc.capture_buffer\[334\] ct.oc.mode_buffer\[41\] VGND VGND VPWR VPWR ct.oc.data_chain\[334\]
+ sky130_fd_sc_hd__sdfxtp_4
Xct.oc.frame\[35\].bits\[4\].cc_scanflop ct.oc.trig_chain\[36\] ct.oc.data_chain\[292\]
+ ct.oc.capture_buffer\[284\] ct.oc.mode_buffer\[35\] VGND VGND VPWR VPWR ct.oc.data_chain\[284\]
+ sky130_fd_sc_hd__sdfxtp_4
Xct.oc.frame\[12\].bits\[5\].cc_scanflop ct.oc.trig_chain\[13\] ct.oc.data_chain\[109\]
+ ct.oc.capture_buffer\[101\] ct.oc.mode_buffer\[12\] VGND VGND VPWR VPWR ct.oc.data_chain\[101\]
+ sky130_fd_sc_hd__sdfxtp_4
Xct.oc.frame\[29\].bits\[2\].cc_scanflop ct.oc.trig_chain\[30\] ct.oc.data_chain\[242\]
+ ct.oc.capture_buffer\[234\] ct.oc.mode_buffer\[29\] VGND VGND VPWR VPWR ct.oc.data_chain\[234\]
+ sky130_fd_sc_hd__sdfxtp_4
XFILLER_0_35_234 VGND VGND VPWR VPWR sky130_fd_sc_hd__fill_1
XFILLER_0_35_278 VGND VGND VPWR VPWR sky130_fd_sc_hd__fill_2
Xct.oc.frame\[36\].bits\[6\].cc_scanflop ct.oc.trig_chain\[37\] ct.oc.data_chain\[302\]
+ ct.oc.capture_buffer\[294\] ct.oc.mode_buffer\[36\] VGND VGND VPWR VPWR ct.oc.data_chain\[294\]
+ sky130_fd_sc_hd__sdfxtp_4
Xct.oc.frame\[13\].bits\[7\].cc_scanflop ct.oc.trig_chain\[14\] ct.oc.data_chain\[119\]
+ ct.oc.capture_buffer\[111\] ct.oc.mode_buffer\[13\] VGND VGND VPWR VPWR ct.oc.data_chain\[111\]
+ sky130_fd_sc_hd__sdfxtp_4
Xct.oc.frame\[18\].bits\[0\].rs_cbuf net46 VGND VGND VPWR VPWR ct.oc.capture_buffer\[144\]
+ sky130_fd_sc_hd__clkbuf_1
XTAP_TAPCELL_ROW_17_181 VGND VPWR sky130_fd_sc_hd__tapvpwrvgnd_1
XFILLER_0_4_194 VGND VGND VPWR VPWR sky130_fd_sc_hd__fill_2
Xct.oc.frame\[7\].bits\[1\].cc_scanflop ct.oc.trig_chain\[8\] ct.oc.data_chain\[65\]
+ ct.oc.capture_buffer\[57\] ct.oc.mode_buffer\[7\] VGND VGND VPWR VPWR ct.oc.data_chain\[57\]
+ sky130_fd_sc_hd__sdfxtp_4
XPHY_EDGE_ROW_37_Left_76 VGND VGND VPWR VPWR sky130_fd_sc_hd__decap_3
Xct.oc.frame\[38\].bits\[0\].rs_cbuf net44 VGND VGND VPWR VPWR ct.oc.capture_buffer\[304\]
+ sky130_fd_sc_hd__clkbuf_1
Xct.oc.frame\[8\].bits\[3\].cc_scanflop ct.oc.trig_chain\[9\] ct.oc.data_chain\[75\]
+ ct.oc.capture_buffer\[67\] ct.oc.mode_buffer\[8\] VGND VGND VPWR VPWR ct.oc.data_chain\[67\]
+ sky130_fd_sc_hd__sdfxtp_4
XFILLER_0_13_63 VGND VGND VPWR VPWR sky130_fd_sc_hd__fill_1
XTAP_TAPCELL_ROW_14_162 VGND VPWR sky130_fd_sc_hd__tapvpwrvgnd_1
Xct.oc.frame\[21\].bits\[1\].rs_cbuf net40 VGND VGND VPWR VPWR ct.oc.capture_buffer\[169\]
+ sky130_fd_sc_hd__buf_1
XTAP_TAPCELL_ROW_6_119 VGND VPWR sky130_fd_sc_hd__tapvpwrvgnd_1
Xct.oc.frame\[15\].bits\[6\].rs_cbuf net14 VGND VGND VPWR VPWR ct.oc.capture_buffer\[126\]
+ sky130_fd_sc_hd__clkbuf_1
XTAP_TAPCELL_ROW_37_287 VGND VPWR sky130_fd_sc_hd__tapvpwrvgnd_1
XFILLER_0_9_231 VGND VGND VPWR VPWR sky130_fd_sc_hd__fill_1
Xct.oc.frame\[9\].bits\[5\].cc_scanflop ct.oc.trig_chain\[10\] ct.oc.data_chain\[85\]
+ ct.oc.capture_buffer\[77\] ct.oc.mode_buffer\[9\] VGND VGND VPWR VPWR ct.oc.data_chain\[77\]
+ sky130_fd_sc_hd__sdfxtp_4
XTAP_TAPCELL_ROW_20_198 VGND VPWR sky130_fd_sc_hd__tapvpwrvgnd_1
Xct.oc.frame\[9\].bits\[0\].rs_cbuf net48 VGND VGND VPWR VPWR ct.oc.capture_buffer\[72\]
+ sky130_fd_sc_hd__clkbuf_1
XFILLER_0_34_29 VGND VGND VPWR VPWR sky130_fd_sc_hd__fill_1
Xct.oc.frame\[41\].bits\[1\].rs_cbuf net37 VGND VGND VPWR VPWR ct.oc.capture_buffer\[329\]
+ sky130_fd_sc_hd__clkbuf_1
XFILLER_0_28_307 VGND VGND VPWR VPWR sky130_fd_sc_hd__fill_1
Xct.ic.frame\[2\].cc_clkbuf ct.ic.trig_chain\[2\] VGND VGND VPWR VPWR ct.ic.trig_chain\[3\]
+ sky130_fd_sc_hd__clkbuf_4
Xct.oc.frame\[35\].bits\[6\].rs_cbuf net10 VGND VGND VPWR VPWR ct.oc.capture_buffer\[286\]
+ sky130_fd_sc_hd__clkbuf_1
XPHY_EDGE_ROW_12_Right_12 VGND VGND VPWR VPWR sky130_fd_sc_hd__decap_3
XPHY_EDGE_ROW_21_Right_21 VGND VGND VPWR VPWR sky130_fd_sc_hd__decap_3
Xct.oc.frame\[6\].bits\[6\].rs_cbuf net12 VGND VGND VPWR VPWR ct.oc.capture_buffer\[54\]
+ sky130_fd_sc_hd__clkbuf_1
Xct.oc.frame\[16\].rs_mbuf net54 VGND VGND VPWR VPWR ct.oc.mode_buffer\[16\] sky130_fd_sc_hd__buf_4
XTAP_TAPCELL_ROW_25_224 VGND VPWR sky130_fd_sc_hd__tapvpwrvgnd_1
XPHY_EDGE_ROW_30_Right_30 VGND VGND VPWR VPWR sky130_fd_sc_hd__decap_3
XPHY_EDGE_ROW_24_Left_63 VGND VGND VPWR VPWR sky130_fd_sc_hd__decap_3
XTAP_TAPCELL_ROW_22_205 VGND VPWR sky130_fd_sc_hd__tapvpwrvgnd_1
Xct.oc.frame\[28\].bits\[2\].rs_cbuf net32 VGND VGND VPWR VPWR ct.oc.capture_buffer\[226\]
+ sky130_fd_sc_hd__clkbuf_1
Xct.oc.frame\[11\].bits\[3\].rs_cbuf net29 VGND VGND VPWR VPWR ct.oc.capture_buffer\[91\]
+ sky130_fd_sc_hd__clkbuf_1
Xfanout8 net9 VGND VGND VPWR VPWR net8 sky130_fd_sc_hd__clkbuf_4
Xct.ic.frame\[2\].bits\[0\].cc_flop ct.ic.trig_chain\[3\] ct.ic.data_chain\[9\] VGND
+ VGND VPWR VPWR ct.ic.data_chain\[6\] sky130_fd_sc_hd__dfxtp_4
XFILLER_0_27_3 VGND VGND VPWR VPWR sky130_fd_sc_hd__fill_1
Xct.oc.frame\[31\].bits\[3\].rs_cbuf net25 VGND VGND VPWR VPWR ct.oc.capture_buffer\[251\]
+ sky130_fd_sc_hd__clkbuf_1
XANTENNA_6 ct.ic.trig_chain\[1\] VGND VGND VPWR VPWR sky130_fd_sc_hd__diode_2
XFILLER_0_6_29 VGND VGND VPWR VPWR sky130_fd_sc_hd__fill_2
XFILLER_0_21_165 VGND VGND VPWR VPWR sky130_fd_sc_hd__decap_3
Xct.oc.frame\[2\].bits\[3\].rs_cbuf net27 VGND VGND VPWR VPWR ct.oc.capture_buffer\[19\]
+ sky130_fd_sc_hd__clkbuf_1
Xct.ro.count\[5\].cc_div_flop ct.ro.counter_n\[4\] ct.ro.counter_n\[5\] rst_n VGND
+ VGND VPWR VPWR ct.ro.counter\[5\] ct.ro.counter_n\[5\] sky130_fd_sc_hd__dfrbp_2
XPHY_EDGE_ROW_6_Right_6 VGND VGND VPWR VPWR sky130_fd_sc_hd__decap_3
XPHY_EDGE_ROW_11_Left_50 VGND VGND VPWR VPWR sky130_fd_sc_hd__decap_3
Xct.oc.frame\[18\].bits\[4\].rs_cbuf net23 VGND VGND VPWR VPWR ct.oc.capture_buffer\[148\]
+ sky130_fd_sc_hd__clkbuf_1
XFILLER_0_17_213 VGND VGND VPWR VPWR sky130_fd_sc_hd__fill_2
XFILLER_0_32_216 VGND VGND VPWR VPWR sky130_fd_sc_hd__fill_1
Xct.oc.frame\[30\].bits\[2\].cc_scanflop ct.oc.trig_chain\[31\] ct.oc.data_chain\[250\]
+ ct.oc.capture_buffer\[242\] ct.oc.mode_buffer\[30\] VGND VGND VPWR VPWR ct.oc.data_chain\[242\]
+ sky130_fd_sc_hd__sdfxtp_4
Xct.oc.frame\[24\].bits\[0\].cc_scanflop ct.oc.trig_chain\[25\] ct.oc.data_chain\[200\]
+ ct.oc.capture_buffer\[192\] ct.oc.mode_buffer\[24\] VGND VGND VPWR VPWR ct.oc.data_chain\[192\]
+ sky130_fd_sc_hd__sdfxtp_4
Xct.ic.frame\[1\].cc_clkbuf ct.ic.trig_chain\[1\] VGND VGND VPWR VPWR ct.ic.trig_chain\[2\]
+ sky130_fd_sc_hd__clkbuf_4
Xct.oc.frame\[31\].bits\[4\].cc_scanflop ct.oc.trig_chain\[32\] ct.oc.data_chain\[260\]
+ ct.oc.capture_buffer\[252\] ct.oc.mode_buffer\[31\] VGND VGND VPWR VPWR ct.oc.data_chain\[252\]
+ sky130_fd_sc_hd__sdfxtp_4
Xct.ic.frame\[9\].bits\[1\].cc_flop ct.ic.trig_chain\[10\] ct.ic.data_chain\[31\]
+ VGND VGND VPWR VPWR ct.ic.data_chain\[28\] sky130_fd_sc_hd__dfxtp_4
Xct.oc.frame\[38\].bits\[4\].rs_cbuf net21 VGND VGND VPWR VPWR ct.oc.capture_buffer\[308\]
+ sky130_fd_sc_hd__clkbuf_1
Xct.oc.frame\[25\].bits\[2\].cc_scanflop ct.oc.trig_chain\[26\] ct.oc.data_chain\[210\]
+ ct.oc.capture_buffer\[202\] ct.oc.mode_buffer\[25\] VGND VGND VPWR VPWR ct.oc.data_chain\[202\]
+ sky130_fd_sc_hd__sdfxtp_4
XFILLER_0_13_31 VGND VGND VPWR VPWR sky130_fd_sc_hd__fill_1
XTAP_TAPCELL_ROW_14_163 VGND VPWR sky130_fd_sc_hd__tapvpwrvgnd_1
Xct.oc.frame\[21\].bits\[5\].rs_cbuf net19 VGND VGND VPWR VPWR ct.oc.capture_buffer\[173\]
+ sky130_fd_sc_hd__clkbuf_1
Xct.oc.frame\[19\].bits\[0\].cc_scanflop ct.oc.trig_chain\[20\] ct.oc.data_chain\[160\]
+ ct.oc.capture_buffer\[152\] ct.oc.mode_buffer\[19\] VGND VGND VPWR VPWR ct.oc.data_chain\[152\]
+ sky130_fd_sc_hd__sdfxtp_4
Xct.oc.frame\[19\].cc_clkbuf ct.oc.trig_chain\[19\] VGND VGND VPWR VPWR ct.oc.trig_chain\[20\]
+ sky130_fd_sc_hd__clkbuf_4
XTAP_TAPCELL_ROW_37_288 VGND VPWR sky130_fd_sc_hd__tapvpwrvgnd_1
Xct.oc.frame\[32\].bits\[6\].cc_scanflop ct.oc.trig_chain\[33\] ct.oc.data_chain\[270\]
+ ct.oc.capture_buffer\[262\] ct.oc.mode_buffer\[32\] VGND VGND VPWR VPWR ct.oc.data_chain\[262\]
+ sky130_fd_sc_hd__sdfxtp_4
Xct.oc.frame\[26\].bits\[4\].cc_scanflop ct.oc.trig_chain\[27\] ct.oc.data_chain\[220\]
+ ct.oc.capture_buffer\[212\] ct.oc.mode_buffer\[26\] VGND VGND VPWR VPWR ct.oc.data_chain\[212\]
+ sky130_fd_sc_hd__sdfxtp_4
Xct.oc.frame\[9\].bits\[4\].rs_cbuf net24 VGND VGND VPWR VPWR ct.oc.capture_buffer\[76\]
+ sky130_fd_sc_hd__clkbuf_1
XTAP_TAPCELL_ROW_11_144 VGND VPWR sky130_fd_sc_hd__tapvpwrvgnd_1
Xct.oc.frame\[41\].bits\[5\].rs_cbuf net15 VGND VGND VPWR VPWR ct.oc.capture_buffer\[333\]
+ sky130_fd_sc_hd__clkbuf_1
Xct.oc.frame\[27\].bits\[6\].cc_scanflop ct.oc.trig_chain\[28\] ct.oc.data_chain\[230\]
+ ct.oc.capture_buffer\[222\] ct.oc.mode_buffer\[27\] VGND VGND VPWR VPWR ct.oc.data_chain\[222\]
+ sky130_fd_sc_hd__sdfxtp_4
Xct.oc.frame\[3\].bits\[1\].cc_scanflop ct.oc.trig_chain\[4\] ct.oc.data_chain\[33\]
+ ct.oc.capture_buffer\[25\] ct.oc.mode_buffer\[3\] VGND VGND VPWR VPWR ct.oc.data_chain\[25\]
+ sky130_fd_sc_hd__sdfxtp_4
XFILLER_0_6_235 VGND VGND VPWR VPWR sky130_fd_sc_hd__fill_2
XFILLER_0_37_105 VGND VGND VPWR VPWR sky130_fd_sc_hd__fill_1
XTAP_TAPCELL_ROW_25_225 VGND VPWR sky130_fd_sc_hd__tapvpwrvgnd_1
Xct.oc.frame\[4\].bits\[3\].cc_scanflop ct.oc.trig_chain\[5\] ct.oc.data_chain\[43\]
+ ct.oc.capture_buffer\[35\] ct.oc.mode_buffer\[4\] VGND VGND VPWR VPWR ct.oc.data_chain\[35\]
+ sky130_fd_sc_hd__sdfxtp_4
Xct.oc.frame\[14\].bits\[1\].rs_cbuf net41 VGND VGND VPWR VPWR ct.oc.capture_buffer\[113\]
+ sky130_fd_sc_hd__clkbuf_1
Xct.oc.frame\[5\].bits\[5\].cc_scanflop ct.oc.trig_chain\[6\] ct.oc.data_chain\[53\]
+ ct.oc.capture_buffer\[45\] ct.oc.mode_buffer\[5\] VGND VGND VPWR VPWR ct.oc.data_chain\[45\]
+ sky130_fd_sc_hd__sdfxtp_4
XFILLER_0_28_149 VGND VGND VPWR VPWR sky130_fd_sc_hd__fill_1
XTAP_TAPCELL_ROW_0_80 VGND VPWR sky130_fd_sc_hd__tapvpwrvgnd_1
XTAP_TAPCELL_ROW_22_206 VGND VPWR sky130_fd_sc_hd__tapvpwrvgnd_1
XFILLER_0_2_282 VGND VGND VPWR VPWR sky130_fd_sc_hd__fill_2
XTAP_TAPCELL_ROW_30_250 VGND VPWR sky130_fd_sc_hd__tapvpwrvgnd_1
Xct.oc.frame\[6\].bits\[7\].cc_scanflop ct.oc.trig_chain\[7\] ct.oc.data_chain\[63\]
+ ct.oc.capture_buffer\[55\] ct.oc.mode_buffer\[6\] VGND VGND VPWR VPWR ct.oc.data_chain\[55\]
+ sky130_fd_sc_hd__sdfxtp_4
Xct.oc.frame\[34\].bits\[1\].rs_cbuf net38 VGND VGND VPWR VPWR ct.oc.capture_buffer\[273\]
+ sky130_fd_sc_hd__clkbuf_1
Xct.oc.frame\[31\].rs_mbuf net49 VGND VGND VPWR VPWR ct.oc.mode_buffer\[31\] sky130_fd_sc_hd__buf_4
Xct.oc.frame\[28\].bits\[6\].rs_cbuf net11 VGND VGND VPWR VPWR ct.oc.capture_buffer\[230\]
+ sky130_fd_sc_hd__clkbuf_1
XFILLER_0_18_171 VGND VGND VPWR VPWR sky130_fd_sc_hd__fill_1
Xct.oc.frame\[11\].bits\[7\].rs_cbuf net9 VGND VGND VPWR VPWR ct.oc.capture_buffer\[95\]
+ sky130_fd_sc_hd__clkbuf_1
Xfanout9 ct.cw.target\[7\] VGND VGND VPWR VPWR net9 sky130_fd_sc_hd__clkbuf_4
Xct.oc.frame\[5\].bits\[1\].rs_cbuf net37 VGND VGND VPWR VPWR ct.oc.capture_buffer\[41\]
+ sky130_fd_sc_hd__clkbuf_1
XFILLER_0_1_63 VGND VGND VPWR VPWR sky130_fd_sc_hd__fill_1
Xct.oc.frame\[31\].bits\[7\].rs_cbuf net5 VGND VGND VPWR VPWR ct.oc.capture_buffer\[255\]
+ sky130_fd_sc_hd__clkbuf_1
XANTENNA_7 ct.oc.capture_buffer\[271\] VGND VGND VPWR VPWR sky130_fd_sc_hd__diode_2
Xct.oc.frame\[2\].bits\[7\].rs_cbuf net7 VGND VGND VPWR VPWR ct.oc.capture_buffer\[23\]
+ sky130_fd_sc_hd__buf_1
XFILLER_0_32_85 VGND VGND VPWR VPWR sky130_fd_sc_hd__fill_1
Xct.ic.frame\[0\].cc_clkbuf ct.ic.trig_chain\[0\] VGND VGND VPWR VPWR ct.ic.trig_chain\[1\]
+ sky130_fd_sc_hd__clkbuf_4
XFILLER_0_5_119 VGND VGND VPWR VPWR sky130_fd_sc_hd__fill_1
Xct.oc.frame\[18\].cc_clkbuf ct.oc.trig_chain\[18\] VGND VGND VPWR VPWR ct.oc.trig_chain\[19\]
+ sky130_fd_sc_hd__clkbuf_4
Xct.oc.frame\[24\].bits\[3\].rs_cbuf net28 VGND VGND VPWR VPWR ct.oc.capture_buffer\[195\]
+ sky130_fd_sc_hd__clkbuf_1
XFILLER_0_4_141 VGND VGND VPWR VPWR sky130_fd_sc_hd__fill_2
XFILLER_0_23_217 VGND VGND VPWR VPWR sky130_fd_sc_hd__fill_1
XTAP_TAPCELL_ROW_14_164 VGND VPWR sky130_fd_sc_hd__tapvpwrvgnd_1
XTAP_TAPCELL_ROW_37_289 VGND VPWR sky130_fd_sc_hd__tapvpwrvgnd_1
XTAP_TAPCELL_ROW_11_145 VGND VPWR sky130_fd_sc_hd__tapvpwrvgnd_1
Xct.oc.frame\[20\].bits\[0\].cc_scanflop ct.oc.trig_chain\[21\] ct.oc.data_chain\[168\]
+ ct.oc.capture_buffer\[160\] ct.oc.mode_buffer\[20\] VGND VGND VPWR VPWR ct.oc.data_chain\[160\]
+ sky130_fd_sc_hd__sdfxtp_4
XFILLER_0_10_253 VGND VGND VPWR VPWR sky130_fd_sc_hd__fill_2
Xct.oc.frame\[21\].bits\[2\].cc_scanflop ct.oc.trig_chain\[22\] ct.oc.data_chain\[178\]
+ ct.oc.capture_buffer\[170\] ct.oc.mode_buffer\[21\] VGND VGND VPWR VPWR ct.oc.data_chain\[170\]
+ sky130_fd_sc_hd__sdfxtp_4
Xct.oc.frame\[20\].bits\[0\].rs_cbuf net46 VGND VGND VPWR VPWR ct.oc.capture_buffer\[160\]
+ sky130_fd_sc_hd__clkbuf_1
Xct.oc.frame\[15\].bits\[0\].cc_scanflop ct.oc.trig_chain\[16\] ct.oc.data_chain\[128\]
+ ct.oc.capture_buffer\[120\] ct.oc.mode_buffer\[15\] VGND VGND VPWR VPWR ct.oc.data_chain\[120\]
+ sky130_fd_sc_hd__sdfxtp_4
Xct.oc.frame\[14\].bits\[5\].rs_cbuf net19 VGND VGND VPWR VPWR ct.oc.capture_buffer\[117\]
+ sky130_fd_sc_hd__clkbuf_1
XFILLER_0_36_194 VGND VGND VPWR VPWR sky130_fd_sc_hd__fill_2
XTAP_TAPCELL_ROW_0_81 VGND VPWR sky130_fd_sc_hd__tapvpwrvgnd_1
Xct.cw.cc_test_0 ct.cw.source\[0\] ct.cw.source\[1\] ct.cw.source\[2\] VGND VGND VPWR
+ VPWR ct.cw.target\[0\] sky130_fd_sc_hd__mux2i_2
Xct.oc.frame\[22\].bits\[4\].cc_scanflop ct.oc.trig_chain\[23\] ct.oc.data_chain\[188\]
+ ct.oc.capture_buffer\[180\] ct.oc.mode_buffer\[22\] VGND VGND VPWR VPWR ct.oc.data_chain\[180\]
+ sky130_fd_sc_hd__sdfxtp_4
Xct.oc.frame\[39\].bits\[1\].cc_scanflop ct.oc.trig_chain\[40\] ct.oc.data_chain\[321\]
+ ct.oc.capture_buffer\[313\] ct.oc.mode_buffer\[39\] VGND VGND VPWR VPWR ct.oc.data_chain\[313\]
+ sky130_fd_sc_hd__sdfxtp_4
XFILLER_0_35_30 VGND VGND VPWR VPWR sky130_fd_sc_hd__fill_2
XTAP_TAPCELL_ROW_22_207 VGND VPWR sky130_fd_sc_hd__tapvpwrvgnd_1
XTAP_TAPCELL_ROW_30_251 VGND VPWR sky130_fd_sc_hd__tapvpwrvgnd_1
XFILLER_0_34_109 VGND VGND VPWR VPWR sky130_fd_sc_hd__fill_1
Xct.oc.frame\[16\].bits\[2\].cc_scanflop ct.oc.trig_chain\[17\] ct.oc.data_chain\[138\]
+ ct.oc.capture_buffer\[130\] ct.oc.mode_buffer\[16\] VGND VGND VPWR VPWR ct.oc.data_chain\[130\]
+ sky130_fd_sc_hd__sdfxtp_4
XFILLER_0_30_326 VGND VGND VPWR VPWR sky130_fd_sc_hd__fill_1
Xct.oc.frame\[40\].bits\[0\].rs_cbuf net44 VGND VGND VPWR VPWR ct.oc.capture_buffer\[320\]
+ sky130_fd_sc_hd__clkbuf_1
Xct.ic.frame\[5\].bits\[2\].cc_flop ct.ic.trig_chain\[6\] ct.ic.data_chain\[20\] VGND
+ VGND VPWR VPWR ct.ic.data_chain\[17\] sky130_fd_sc_hd__dfxtp_4
Xct.oc.frame\[34\].bits\[5\].rs_cbuf net15 VGND VGND VPWR VPWR ct.oc.capture_buffer\[277\]
+ sky130_fd_sc_hd__clkbuf_1
Xct.oc.frame\[23\].bits\[6\].cc_scanflop ct.oc.trig_chain\[24\] ct.oc.data_chain\[198\]
+ ct.oc.capture_buffer\[190\] ct.oc.mode_buffer\[23\] VGND VGND VPWR VPWR ct.oc.data_chain\[190\]
+ sky130_fd_sc_hd__sdfxtp_4
Xct.oc.frame\[35\].rs_mbuf net49 VGND VGND VPWR VPWR ct.oc.mode_buffer\[35\] sky130_fd_sc_hd__buf_4
Xct.oc.frame\[17\].bits\[4\].cc_scanflop ct.oc.trig_chain\[18\] ct.oc.data_chain\[148\]
+ ct.oc.capture_buffer\[140\] ct.oc.mode_buffer\[17\] VGND VGND VPWR VPWR ct.oc.data_chain\[140\]
+ sky130_fd_sc_hd__sdfxtp_4
XFILLER_0_12_326 VGND VGND VPWR VPWR sky130_fd_sc_hd__fill_1
Xct.oc.frame\[0\].bits\[3\].cc_scanflop ct.oc.trig_chain\[1\] ct.oc.data_chain\[11\]
+ ct.oc.capture_buffer\[3\] ct.oc.mode_buffer\[0\] VGND VGND VPWR VPWR ct.oc.data_chain\[3\]
+ sky130_fd_sc_hd__sdfxtp_4
Xct.oc.frame\[5\].bits\[5\].rs_cbuf net17 VGND VGND VPWR VPWR ct.oc.capture_buffer\[45\]
+ sky130_fd_sc_hd__clkbuf_1
Xct.oc.frame\[18\].bits\[6\].cc_scanflop ct.oc.trig_chain\[19\] ct.oc.data_chain\[158\]
+ ct.oc.capture_buffer\[150\] ct.oc.mode_buffer\[18\] VGND VGND VPWR VPWR ct.oc.data_chain\[150\]
+ sky130_fd_sc_hd__sdfxtp_4
XFILLER_0_7_320 VGND VGND VPWR VPWR sky130_fd_sc_hd__decap_6
XFILLER_0_15_175 VGND VGND VPWR VPWR sky130_fd_sc_hd__fill_2
Xct.oc.frame\[1\].bits\[5\].cc_scanflop ct.oc.trig_chain\[2\] ct.oc.data_chain\[21\]
+ ct.oc.capture_buffer\[13\] ct.oc.mode_buffer\[1\] VGND VGND VPWR VPWR ct.oc.data_chain\[13\]
+ sky130_fd_sc_hd__sdfxtp_4
Xcw.cc_test_0 ui_in[0] ui_in[1] ui_in[2] VGND VGND VPWR VPWR uo_out[0] sky130_fd_sc_hd__mux2i_2
XANTENNA_8 ct.oc.capture_buffer\[279\] VGND VGND VPWR VPWR sky130_fd_sc_hd__diode_2
Xct.oc.frame\[2\].bits\[7\].cc_scanflop ct.oc.trig_chain\[3\] ct.oc.data_chain\[31\]
+ ct.oc.capture_buffer\[23\] ct.oc.mode_buffer\[2\] VGND VGND VPWR VPWR ct.oc.data_chain\[23\]
+ sky130_fd_sc_hd__sdfxtp_4
Xct.oc.frame\[17\].cc_clkbuf ct.oc.trig_chain\[17\] VGND VGND VPWR VPWR ct.oc.trig_chain\[18\]
+ sky130_fd_sc_hd__clkbuf_4
XFILLER_0_32_53 VGND VGND VPWR VPWR sky130_fd_sc_hd__fill_1
Xct.oc.frame\[27\].bits\[1\].rs_cbuf net40 VGND VGND VPWR VPWR ct.oc.capture_buffer\[217\]
+ sky130_fd_sc_hd__clkbuf_1
XFILLER_0_32_3 VGND VGND VPWR VPWR sky130_fd_sc_hd__fill_1
Xct.oc.frame\[10\].bits\[2\].rs_cbuf net35 VGND VGND VPWR VPWR ct.oc.capture_buffer\[82\]
+ sky130_fd_sc_hd__clkbuf_1
XFILLER_0_1_326 VGND VGND VPWR VPWR sky130_fd_sc_hd__fill_1
Xct.oc.frame\[30\].bits\[2\].rs_cbuf net32 VGND VGND VPWR VPWR ct.oc.capture_buffer\[242\]
+ sky130_fd_sc_hd__clkbuf_1
Xct.oc.frame\[24\].bits\[7\].rs_cbuf net8 VGND VGND VPWR VPWR ct.oc.capture_buffer\[199\]
+ sky130_fd_sc_hd__clkbuf_1
XFILLER_0_7_30 VGND VGND VPWR VPWR sky130_fd_sc_hd__fill_2
XTAP_TAPCELL_ROW_8_130 VGND VPWR sky130_fd_sc_hd__tapvpwrvgnd_1
Xct.oc.frame\[1\].bits\[2\].rs_cbuf net33 VGND VGND VPWR VPWR ct.oc.capture_buffer\[10\]
+ sky130_fd_sc_hd__clkbuf_1
XTAP_TAPCELL_ROW_14_165 VGND VPWR sky130_fd_sc_hd__tapvpwrvgnd_1
XFILLER_0_22_251 VGND VGND VPWR VPWR sky130_fd_sc_hd__fill_1
XFILLER_0_9_223 VGND VGND VPWR VPWR sky130_fd_sc_hd__fill_1
XFILLER_0_13_284 VGND VGND VPWR VPWR sky130_fd_sc_hd__decap_4
XTAP_TAPCELL_ROW_5_111 VGND VPWR sky130_fd_sc_hd__tapvpwrvgnd_1
XTAP_TAPCELL_ROW_11_146 VGND VPWR sky130_fd_sc_hd__tapvpwrvgnd_1
Xct.oc.frame\[17\].bits\[3\].rs_cbuf net28 VGND VGND VPWR VPWR ct.oc.capture_buffer\[139\]
+ sky130_fd_sc_hd__clkbuf_1
XFILLER_0_5_281 VGND VGND VPWR VPWR sky130_fd_sc_hd__fill_2
XFILLER_0_18_321 VGND VGND VPWR VPWR sky130_fd_sc_hd__decap_6
Xct.ic.frame\[8\].bits\[0\].cc_flop ct.ic.trig_chain\[9\] ct.ic.data_chain\[27\] VGND
+ VGND VPWR VPWR ct.ic.data_chain\[24\] sky130_fd_sc_hd__dfxtp_4
Xct.oc.frame\[37\].bits\[3\].rs_cbuf net25 VGND VGND VPWR VPWR ct.oc.capture_buffer\[299\]
+ sky130_fd_sc_hd__clkbuf_1
Xct.oc.frame\[20\].bits\[4\].rs_cbuf net23 VGND VGND VPWR VPWR ct.oc.capture_buffer\[164\]
+ sky130_fd_sc_hd__clkbuf_1
XTAP_TAPCELL_ROW_0_82 VGND VPWR sky130_fd_sc_hd__tapvpwrvgnd_1
XFILLER_0_19_65 VGND VGND VPWR VPWR sky130_fd_sc_hd__fill_1
Xct.cw.cc_test_1 VGND VPWR VGND VPWR ct.cw.source\[0\] ct.cw.source\[1\] ct.cw.source\[2\]
+ ct.cw.target\[1\] sky130_ht_sc_tt05__mux2i_2
XFILLER_0_15_324 VGND VGND VPWR VPWR sky130_fd_sc_hd__decap_3
XTAP_TAPCELL_ROW_22_208 VGND VPWR sky130_fd_sc_hd__tapvpwrvgnd_1
Xct.oc.frame\[8\].bits\[3\].rs_cbuf net26 VGND VGND VPWR VPWR ct.oc.capture_buffer\[67\]
+ sky130_fd_sc_hd__clkbuf_1
XTAP_TAPCELL_ROW_30_252 VGND VPWR sky130_fd_sc_hd__tapvpwrvgnd_1
XFILLER_0_2_251 VGND VGND VPWR VPWR sky130_fd_sc_hd__fill_1
Xct.oc.frame\[40\].bits\[4\].rs_cbuf net21 VGND VGND VPWR VPWR ct.oc.capture_buffer\[324\]
+ sky130_fd_sc_hd__clkbuf_1
Xct.oc.frame\[39\].rs_mbuf net51 VGND VGND VPWR VPWR ct.oc.mode_buffer\[39\] sky130_fd_sc_hd__buf_4
Xct.oc.frame\[16\].cc_clkbuf ct.oc.trig_chain\[16\] VGND VGND VPWR VPWR ct.oc.trig_chain\[17\]
+ sky130_fd_sc_hd__clkbuf_4
XPHY_EDGE_ROW_28_Left_67 VGND VGND VPWR VPWR sky130_fd_sc_hd__decap_3
Xct.oc.frame\[40\].bits\[1\].cc_scanflop ct.oc.trig_chain\[41\] ct.oc.data_chain\[329\]
+ ct.oc.capture_buffer\[321\] ct.oc.mode_buffer\[40\] VGND VGND VPWR VPWR ct.oc.data_chain\[321\]
+ sky130_fd_sc_hd__sdfxtp_4
XFILLER_0_15_143 VGND VGND VPWR VPWR sky130_fd_sc_hd__fill_1
Xct.oc.frame\[11\].bits\[0\].cc_scanflop ct.oc.trig_chain\[12\] ct.oc.data_chain\[96\]
+ ct.oc.capture_buffer\[88\] ct.oc.mode_buffer\[11\] VGND VGND VPWR VPWR ct.oc.data_chain\[88\]
+ sky130_fd_sc_hd__sdfxtp_4
Xct.oc.frame\[41\].bits\[3\].cc_scanflop ct.oc.trig_chain\[42\] ct.oc.data_chain\[339\]
+ ct.oc.capture_buffer\[331\] ct.oc.mode_buffer\[41\] VGND VGND VPWR VPWR ct.oc.data_chain\[331\]
+ sky130_fd_sc_hd__sdfxtp_4
Xcw.cc_test_1 VGND VPWR VGND VPWR ui_in[0] ui_in[1] ui_in[2] uo_out[1] sky130_ht_sc_tt05__mux2i_2
Xct.oc.frame\[35\].bits\[1\].cc_scanflop ct.oc.trig_chain\[36\] ct.oc.data_chain\[289\]
+ ct.oc.capture_buffer\[281\] ct.oc.mode_buffer\[35\] VGND VGND VPWR VPWR ct.oc.data_chain\[281\]
+ sky130_fd_sc_hd__sdfxtp_4
Xct.oc.frame\[13\].bits\[0\].rs_cbuf net47 VGND VGND VPWR VPWR ct.oc.capture_buffer\[104\]
+ sky130_fd_sc_hd__clkbuf_1
XANTENNA_9 ct.oc.data_chain\[161\] VGND VGND VPWR VPWR sky130_fd_sc_hd__diode_2
Xct.oc.frame\[42\].bits\[5\].cc_scanflop ct.oc.trig_chain\[43\] ct.oc.data_chain\[349\]
+ ct.oc.capture_buffer\[341\] ct.oc.mode_buffer\[42\] VGND VGND VPWR VPWR ct.oc.data_chain\[341\]
+ sky130_fd_sc_hd__sdfxtp_4